07_CYME/Flay 12-01 - 2-3-15 loads (original).sxst_DSS/Loads.dss
New Load.258405883_1 Phases=1 Bus1=258405883.1 kV=7.2000 kW=0.00476198 kVAR=0.00461278 status=variable Vminpu=0.7 yearly=LS_PhaseA daily=LS_PhaseA duty=LS_PhaseA
New Load.385859010_1 Phases=1 Bus1=385859010.1 kV=7.2000 kW=0.00285719 kVAR=0.00276767 status=variable Vminpu=0.7 yearly=LS_PhaseA daily=LS_PhaseA duty=LS_PhaseA
New Load.385859010_2 Phases=1 Bus1=385859010.2 kV=7.2000 kW=0.00301592 kVAR=0.00293400 status=variable Vminpu=0.7 yearly=LS_PhaseB daily=LS_PhaseB duty=LS_PhaseB
New Load.385859010_3 Phases=1 Bus1=385859010.3 kV=7.2000 kW=0.00211440 kVAR=0.00202938 status=variable Vminpu=0.7 yearly=LS_PhaseC daily=LS_PhaseC duty=LS_PhaseC
New Load.258406073_1 Phases=1 Bus1=258406073.1 kV=7.2000 kW=0.00476198 kVAR=0.00461278 status=variable Vminpu=0.7 yearly=LS_PhaseA daily=LS_PhaseA duty=LS_PhaseA
New Load.258425403_2 Phases=1 Bus1=258425403.2 kV=7.2000 kW=0.00502654 kVAR=0.00489000 status=variable Vminpu=0.7 yearly=LS_PhaseB daily=LS_PhaseB duty=LS_PhaseB
New Load.258425972_1 Phases=1 Bus1=258425972.1 kV=7.2000 kW=0.00476198 kVAR=0.00461278 status=variable Vminpu=0.7 yearly=LS_PhaseA daily=LS_PhaseA duty=LS_PhaseA
New Load.258406682_2 Phases=1 Bus1=258406682.2 kV=7.2000 kW=0.00753980 kVAR=0.00733500 status=variable Vminpu=0.7 yearly=LS_PhaseB daily=LS_PhaseB duty=LS_PhaseB
New Load.258406682_3 Phases=1 Bus1=258406682.3 kV=7.2000 kW=0.00528601 kVAR=0.00507345 status=variable Vminpu=0.7 yearly=LS_PhaseC daily=LS_PhaseC duty=LS_PhaseC
New Load.258405928_2 Phases=1 Bus1=258405928.2 kV=7.2000 kW=0.00502654 kVAR=0.00489000 status=variable Vminpu=0.7 yearly=LS_PhaseB daily=LS_PhaseB duty=LS_PhaseB
New Load.259529050_1 Phases=1 Bus1=259529050.1 kV=7.2000 kW=0.00476198 kVAR=0.00461278 status=variable Vminpu=0.7 yearly=LS_PhaseA daily=LS_PhaseA duty=LS_PhaseA
New Load.259552831_3 Phases=1 Bus1=259552831.3 kV=7.2000 kW=0.00211440 kVAR=0.00202938 status=variable Vminpu=0.7 yearly=LS_PhaseC daily=LS_PhaseC duty=LS_PhaseC
New Load.258425877_1 Phases=1 Bus1=258425877.1 kV=7.2000 kW=0.00285719 kVAR=0.00276767 status=variable Vminpu=0.7 yearly=LS_PhaseA daily=LS_PhaseA duty=LS_PhaseA
New Load.384502996_1 Phases=1 Bus1=384502996.1 kV=7.2000 kW=0.00476198 kVAR=0.00461278 status=variable Vminpu=0.7 yearly=LS_PhaseA daily=LS_PhaseA duty=LS_PhaseA
New Load.258443544_3 Phases=1 Bus1=258443544.3 kV=7.2000 kW=0.00140960 kVAR=0.00135292 status=variable Vminpu=0.7 yearly=LS_PhaseC daily=LS_PhaseC duty=LS_PhaseC
New Load.258405988_3 Phases=1 Bus1=258405988.3 kV=7.2000 kW=0.00704801 kVAR=0.00676461 status=variable Vminpu=0.7 yearly=LS_PhaseC daily=LS_PhaseC duty=LS_PhaseC
New Load.260981165_3 Phases=1 Bus1=260981165.3 kV=7.2000 kW=0.01409602 kVAR=0.01352921 status=variable Vminpu=0.7 yearly=LS_PhaseC daily=LS_PhaseC duty=LS_PhaseC
New Load.258443439_2 Phases=1 Bus1=258443439.2 kV=7.2000 kW=0.00502654 kVAR=0.00489000 status=variable Vminpu=0.7 yearly=LS_PhaseB daily=LS_PhaseB duty=LS_PhaseB
New Load.258425137_1 Phases=1 Bus1=258425137.1 kV=7.2000 kW=0.00190479 kVAR=0.00184511 status=variable Vminpu=0.7 yearly=LS_PhaseA daily=LS_PhaseA duty=LS_PhaseA
New Load.258425137_2 Phases=1 Bus1=258425137.2 kV=7.2000 kW=0.00201061 kVAR=0.00195600 status=variable Vminpu=0.7 yearly=LS_PhaseB daily=LS_PhaseB duty=LS_PhaseB
New Load.258425137_3 Phases=1 Bus1=258425137.3 kV=7.2000 kW=0.00140960 kVAR=0.00135292 status=variable Vminpu=0.7 yearly=LS_PhaseC daily=LS_PhaseC duty=LS_PhaseC
New Load.384331483_3 Phases=1 Bus1=384331483.3 kV=7.2000 kW=0.01057202 kVAR=0.01014691 status=variable Vminpu=0.7 yearly=LS_PhaseC daily=LS_PhaseC duty=LS_PhaseC
New Load.258406555_3 Phases=1 Bus1=258406555.3 kV=7.2000 kW=0.00352401 kVAR=0.00338230 status=variable Vminpu=0.7 yearly=LS_PhaseC daily=LS_PhaseC duty=LS_PhaseC
New Load.384502968_1 Phases=1 Bus1=384502968.1 kV=7.2000 kW=0.00476198 kVAR=0.00461278 status=variable Vminpu=0.7 yearly=LS_PhaseA daily=LS_PhaseA duty=LS_PhaseA
New Load.261434117_2 Phases=1 Bus1=261434117.2 kV=7.2000 kW=0.01005307 kVAR=0.00978000 status=variable Vminpu=0.7 yearly=LS_PhaseB daily=LS_PhaseB duty=LS_PhaseB
New Load.258406208_3 Phases=1 Bus1=258406208.3 kV=7.2000 kW=0.00140960 kVAR=0.00135292 status=variable Vminpu=0.7 yearly=LS_PhaseC daily=LS_PhaseC duty=LS_PhaseC
New Load.258425142_2 Phases=1 Bus1=258425142.2 kV=7.2000 kW=0.01005307 kVAR=0.00978000 status=variable Vminpu=0.7 yearly=LS_PhaseB daily=LS_PhaseB duty=LS_PhaseB
New Load.258406662_3 Phases=1 Bus1=258406662.3 kV=7.2000 kW=0.00704801 kVAR=0.00676461 status=variable Vminpu=0.7 yearly=LS_PhaseC daily=LS_PhaseC duty=LS_PhaseC
New Load.258443549_3 Phases=1 Bus1=258443549.3 kV=7.2000 kW=0.00352401 kVAR=0.00338230 status=variable Vminpu=0.7 yearly=LS_PhaseC daily=LS_PhaseC duty=LS_PhaseC
New Load.258425620_1 Phases=1 Bus1=258425620.1 kV=7.2000 kW=0.00476198 kVAR=0.00461278 status=variable Vminpu=0.7 yearly=LS_PhaseA daily=LS_PhaseA duty=LS_PhaseA
New Load.258425912_3 Phases=1 Bus1=258425912.3 kV=7.2000 kW=0.00070480 kVAR=0.00067646 status=variable Vminpu=0.7 yearly=LS_PhaseC daily=LS_PhaseC duty=LS_PhaseC
New Load.258425937_3 Phases=1 Bus1=258425937.3 kV=7.2000 kW=0.00352401 kVAR=0.00338230 status=variable Vminpu=0.7 yearly=LS_PhaseC daily=LS_PhaseC duty=LS_PhaseC
New Load.258425438_2 Phases=1 Bus1=258425438.2 kV=7.2000 kW=0.00502654 kVAR=0.00489000 status=variable Vminpu=0.7 yearly=LS_PhaseB daily=LS_PhaseB duty=LS_PhaseB
New Load.260663870_1 Phases=1 Bus1=260663870.1 kV=7.2000 kW=0.05712814 kVAR=0.08666995 status=variable Vminpu=0.7 yearly=LS_PhaseA daily=LS_PhaseA duty=LS_PhaseA
New Load.260663870_2 Phases=1 Bus1=260663870.2 kV=7.2000 kW=0.06054032 kVAR=0.08605910 status=variable Vminpu=0.7 yearly=LS_PhaseB daily=LS_PhaseB duty=LS_PhaseB
New Load.260663870_3 Phases=1 Bus1=260663870.3 kV=7.2000 kW=0.04816615 kVAR=0.08644013 status=variable Vminpu=0.7 yearly=LS_PhaseC daily=LS_PhaseC duty=LS_PhaseC
New Load.259228586_3 Phases=1 Bus1=259228586.3 kV=7.2000 kW=0.00704801 kVAR=0.00676461 status=variable Vminpu=0.7 yearly=LS_PhaseC daily=LS_PhaseC duty=LS_PhaseC
New Load.260663825_2 Phases=1 Bus1=260663825.2 kV=7.2000 kW=0.00502654 kVAR=0.00489000 status=variable Vminpu=0.7 yearly=LS_PhaseB daily=LS_PhaseB duty=LS_PhaseB
New Load.258425264_3 Phases=1 Bus1=258425264.3 kV=7.2000 kW=0.00352401 kVAR=0.00338230 status=variable Vminpu=0.7 yearly=LS_PhaseC daily=LS_PhaseC duty=LS_PhaseC
New Load.258406520_1 Phases=1 Bus1=258406520.1 kV=7.2000 kW=0.00476198 kVAR=0.00461278 status=variable Vminpu=0.7 yearly=LS_PhaseA daily=LS_PhaseA duty=LS_PhaseA
New Load.259149287_3 Phases=1 Bus1=259149287.3 kV=7.2000 kW=0.00352401 kVAR=0.00338230 status=variable Vminpu=0.7 yearly=LS_PhaseC daily=LS_PhaseC duty=LS_PhaseC
New Load.260664681_2 Phases=1 Bus1=260664681.2 kV=7.2000 kW=0.00502654 kVAR=0.00489000 status=variable Vminpu=0.7 yearly=LS_PhaseB daily=LS_PhaseB duty=LS_PhaseB
New Load.258425166_1 Phases=1 Bus1=258425166.1 kV=7.2000 kW=0.00190479 kVAR=0.00184511 status=variable Vminpu=0.7 yearly=LS_PhaseA daily=LS_PhaseA duty=LS_PhaseA
New Load.258425166_2 Phases=1 Bus1=258425166.2 kV=7.2000 kW=0.00201061 kVAR=0.00195600 status=variable Vminpu=0.7 yearly=LS_PhaseB daily=LS_PhaseB duty=LS_PhaseB
New Load.258425166_3 Phases=1 Bus1=258425166.3 kV=7.2000 kW=0.00140960 kVAR=0.00135292 status=variable Vminpu=0.7 yearly=LS_PhaseC daily=LS_PhaseC duty=LS_PhaseC
New Load.491242302_2 Phases=1 Bus1=491242302.2 kV=7.2000 kW=0.00753980 kVAR=0.00733500 status=variable Vminpu=0.7 yearly=LS_PhaseB daily=LS_PhaseB duty=LS_PhaseB
New Load.258444159_2 Phases=1 Bus1=258444159.2 kV=7.2000 kW=0.00502654 kVAR=0.00489000 status=variable Vminpu=0.7 yearly=LS_PhaseB daily=LS_PhaseB duty=LS_PhaseB
New Load.258444204_1 Phases=1 Bus1=258444204.1 kV=7.2000 kW=0.00952396 kVAR=0.00922556 status=variable Vminpu=0.7 yearly=LS_PhaseA daily=LS_PhaseA duty=LS_PhaseA
New Load.258444204_2 Phases=1 Bus1=258444204.2 kV=7.2000 kW=0.01005307 kVAR=0.00978000 status=variable Vminpu=0.7 yearly=LS_PhaseB daily=LS_PhaseB duty=LS_PhaseB
New Load.258444204_3 Phases=1 Bus1=258444204.3 kV=7.2000 kW=0.00704801 kVAR=0.00676461 status=variable Vminpu=0.7 yearly=LS_PhaseC daily=LS_PhaseC duty=LS_PhaseC
New Load.258425182_1 Phases=1 Bus1=258425182.1 kV=7.2000 kW=0.00476198 kVAR=0.00461278 status=variable Vminpu=0.7 yearly=LS_PhaseA daily=LS_PhaseA duty=LS_PhaseA
New Load.260663865_2 Phases=1 Bus1=260663865.2 kV=7.2000 kW=0.00301592 kVAR=0.00293400 status=variable Vminpu=0.7 yearly=LS_PhaseB daily=LS_PhaseB duty=LS_PhaseB
New Load.258443514_1 Phases=1 Bus1=258443514.1 kV=7.2000 kW=0.00476198 kVAR=0.00461278 status=variable Vminpu=0.7 yearly=LS_PhaseA daily=LS_PhaseA duty=LS_PhaseA
New Load.258425730_2 Phases=1 Bus1=258425730.2 kV=7.2000 kW=0.00502654 kVAR=0.00489000 status=variable Vminpu=0.7 yearly=LS_PhaseB daily=LS_PhaseB duty=LS_PhaseB
New Load.258406605_1 Phases=1 Bus1=258406605.1 kV=7.2000 kW=0.00476198 kVAR=0.00461278 status=variable Vminpu=0.7 yearly=LS_PhaseA daily=LS_PhaseA duty=LS_PhaseA
New Load.258425107_2 Phases=1 Bus1=258425107.2 kV=7.2000 kW=0.00502654 kVAR=0.00489000 status=variable Vminpu=0.7 yearly=LS_PhaseB daily=LS_PhaseB duty=LS_PhaseB
New Load.258443891_3 Phases=1 Bus1=258443891.3 kV=7.2000 kW=0.00211440 kVAR=0.00202938 status=variable Vminpu=0.7 yearly=LS_PhaseC daily=LS_PhaseC duty=LS_PhaseC
New Load.258425473_3 Phases=1 Bus1=258425473.3 kV=7.2000 kW=0.00352401 kVAR=0.00338230 status=variable Vminpu=0.7 yearly=LS_PhaseC daily=LS_PhaseC duty=LS_PhaseC
New Load.258443985_3 Phases=1 Bus1=258443985.3 kV=7.2000 kW=0.00352401 kVAR=0.00338230 status=variable Vminpu=0.7 yearly=LS_PhaseC daily=LS_PhaseC duty=LS_PhaseC
New Load.258443402_1 Phases=1 Bus1=258443402.1 kV=7.2000 kW=0.00476198 kVAR=0.00461278 status=variable Vminpu=0.7 yearly=LS_PhaseA daily=LS_PhaseA duty=LS_PhaseA
New Load.286927271_3 Phases=1 Bus1=286927271.3 kV=7.2000 kW=0.00528601 kVAR=0.00507345 status=variable Vminpu=0.7 yearly=LS_PhaseC daily=LS_PhaseC duty=LS_PhaseC
New Load.258425735_1 Phases=1 Bus1=258425735.1 kV=7.2000 kW=0.00476198 kVAR=0.00461278 status=variable Vminpu=0.7 yearly=LS_PhaseA daily=LS_PhaseA duty=LS_PhaseA
New Load.258406600_3 Phases=1 Bus1=258406600.3 kV=7.2000 kW=0.00352401 kVAR=0.00338230 status=variable Vminpu=0.7 yearly=LS_PhaseC daily=LS_PhaseC duty=LS_PhaseC
New Load.258405667_3 Phases=1 Bus1=258405667.3 kV=7.2000 kW=0.00352401 kVAR=0.00338230 status=variable Vminpu=0.7 yearly=LS_PhaseC daily=LS_PhaseC duty=LS_PhaseC
New Load.258443851_3 Phases=1 Bus1=258443851.3 kV=7.2000 kW=0.00704801 kVAR=0.00676461 status=variable Vminpu=0.7 yearly=LS_PhaseC daily=LS_PhaseC duty=LS_PhaseC
New Load.258424974_3 Phases=1 Bus1=258424974.3 kV=7.2000 kW=0.00352401 kVAR=0.00338230 status=variable Vminpu=0.7 yearly=LS_PhaseC daily=LS_PhaseC duty=LS_PhaseC
New Load.258443604_3 Phases=1 Bus1=258443604.3 kV=7.2000 kW=0.00352401 kVAR=0.00338230 status=variable Vminpu=0.7 yearly=LS_PhaseC daily=LS_PhaseC duty=LS_PhaseC
New Load.258443749_3 Phases=1 Bus1=258443749.3 kV=7.2000 kW=0.00352401 kVAR=0.00338230 status=variable Vminpu=0.7 yearly=LS_PhaseC daily=LS_PhaseC duty=LS_PhaseC
New Load.258443986_3 Phases=1 Bus1=258443986.3 kV=7.2000 kW=0.00352401 kVAR=0.00338230 status=variable Vminpu=0.7 yearly=LS_PhaseC daily=LS_PhaseC duty=LS_PhaseC
New Load.258406637_3 Phases=1 Bus1=258406637.3 kV=7.2000 kW=0.00352401 kVAR=0.00338230 status=variable Vminpu=0.7 yearly=LS_PhaseC daily=LS_PhaseC duty=LS_PhaseC
New Load.258406223_3 Phases=1 Bus1=258406223.3 kV=7.2000 kW=0.00352401 kVAR=0.00338230 status=variable Vminpu=0.7 yearly=LS_PhaseC daily=LS_PhaseC duty=LS_PhaseC
New Load.258444174_3 Phases=1 Bus1=258444174.3 kV=7.2000 kW=0.00352401 kVAR=0.00338230 status=variable Vminpu=0.7 yearly=LS_PhaseC daily=LS_PhaseC duty=LS_PhaseC
New Load.260664736_1 Phases=1 Bus1=260664736.1 kV=7.2000 kW=0.01904792 kVAR=0.01845111 status=variable Vminpu=0.7 yearly=LS_PhaseA daily=LS_PhaseA duty=LS_PhaseA
New Load.258406418_3 Phases=1 Bus1=258406418.3 kV=7.2000 kW=0.00140960 kVAR=0.00135292 status=variable Vminpu=0.7 yearly=LS_PhaseC daily=LS_PhaseC duty=LS_PhaseC
New Load.258443881_3 Phases=1 Bus1=258443881.3 kV=7.2000 kW=0.00352401 kVAR=0.00338230 status=variable Vminpu=0.7 yearly=LS_PhaseC daily=LS_PhaseC duty=LS_PhaseC
New Load.258425797_2 Phases=1 Bus1=258425797.2 kV=7.2000 kW=0.01005307 kVAR=0.00978000 status=variable Vminpu=0.7 yearly=LS_PhaseB daily=LS_PhaseB duty=LS_PhaseB
New Load.260663790_1 Phases=1 Bus1=260663790.1 kV=7.2000 kW=0.00476198 kVAR=0.00461278 status=variable Vminpu=0.7 yearly=LS_PhaseA daily=LS_PhaseA duty=LS_PhaseA
New Load.260662941_1 Phases=1 Bus1=260662941.1 kV=7.2000 kW=0.00952396 kVAR=0.00922556 status=variable Vminpu=0.7 yearly=LS_PhaseA daily=LS_PhaseA duty=LS_PhaseA
New Load.258425690_1 Phases=1 Bus1=258425690.1 kV=7.2000 kW=0.00190479 kVAR=0.00184511 status=variable Vminpu=0.7 yearly=LS_PhaseA daily=LS_PhaseA duty=LS_PhaseA
New Load.258425443_2 Phases=1 Bus1=258425443.2 kV=7.2000 kW=0.00301592 kVAR=0.00293400 status=variable Vminpu=0.7 yearly=LS_PhaseB daily=LS_PhaseB duty=LS_PhaseB
New Load.258425871_1 Phases=1 Bus1=258425871.1 kV=7.2000 kW=0.00952396 kVAR=0.00922556 status=variable Vminpu=0.7 yearly=LS_PhaseA daily=LS_PhaseA duty=LS_PhaseA
New Load.620695957_1 Phases=1 Bus1=620695957.1 kV=7.2000 kW=0.00476198 kVAR=0.00461278 status=variable Vminpu=0.7 yearly=LS_PhaseA daily=LS_PhaseA duty=LS_PhaseA
New Load.261434092_3 Phases=1 Bus1=261434092.3 kV=7.2000 kW=0.00704801 kVAR=0.00676461 status=variable Vminpu=0.7 yearly=LS_PhaseC daily=LS_PhaseC duty=LS_PhaseC
New Load.258444120_2 Phases=1 Bus1=258444120.2 kV=7.2000 kW=0.00502654 kVAR=0.00489000 status=variable Vminpu=0.7 yearly=LS_PhaseB daily=LS_PhaseB duty=LS_PhaseB
New Load.261434126_2 Phases=1 Bus1=261434126.2 kV=7.2000 kW=0.01005307 kVAR=0.00978000 status=variable Vminpu=0.7 yearly=LS_PhaseB daily=LS_PhaseB duty=LS_PhaseB
New Load.700042420_1 Phases=1 Bus1=700042420.1 kV=7.2000 kW=0.00476198 kVAR=0.00461278 status=variable Vminpu=0.7 yearly=LS_PhaseA daily=LS_PhaseA duty=LS_PhaseA
New Load.258425015_3 Phases=1 Bus1=258425015.3 kV=7.2000 kW=0.00704801 kVAR=0.00676461 status=variable Vminpu=0.7 yearly=LS_PhaseC daily=LS_PhaseC duty=LS_PhaseC
New Load.259108646_1 Phases=1 Bus1=259108646.1 kV=7.2000 kW=0.00095240 kVAR=0.00092256 status=variable Vminpu=0.7 yearly=LS_PhaseA daily=LS_PhaseA duty=LS_PhaseA
New Load.259108646_3 Phases=1 Bus1=259108646.3 kV=7.2000 kW=0.00070480 kVAR=0.00067646 status=variable Vminpu=0.7 yearly=LS_PhaseC daily=LS_PhaseC duty=LS_PhaseC
New Load.258425217_1 Phases=1 Bus1=258425217.1 kV=7.2000 kW=0.00190479 kVAR=0.00184511 status=variable Vminpu=0.7 yearly=LS_PhaseA daily=LS_PhaseA duty=LS_PhaseA
New Load.258425217_2 Phases=1 Bus1=258425217.2 kV=7.2000 kW=0.00201061 kVAR=0.00195600 status=variable Vminpu=0.7 yearly=LS_PhaseB daily=LS_PhaseB duty=LS_PhaseB
New Load.258425217_3 Phases=1 Bus1=258425217.3 kV=7.2000 kW=0.00140960 kVAR=0.00135292 status=variable Vminpu=0.7 yearly=LS_PhaseC daily=LS_PhaseC duty=LS_PhaseC
New Load.258406657_3 Phases=1 Bus1=258406657.3 kV=7.2000 kW=0.00352401 kVAR=0.00338230 status=variable Vminpu=0.7 yearly=LS_PhaseC daily=LS_PhaseC duty=LS_PhaseC
New Load.258444056_3 Phases=1 Bus1=258444056.3 kV=7.2000 kW=0.00352401 kVAR=0.00338230 status=variable Vminpu=0.7 yearly=LS_PhaseC daily=LS_PhaseC duty=LS_PhaseC
New Load.258425675_1 Phases=1 Bus1=258425675.1 kV=7.2000 kW=0.00142859 kVAR=0.00138383 status=variable Vminpu=0.7 yearly=LS_PhaseA daily=LS_PhaseA duty=LS_PhaseA
New Load.258443629_1 Phases=1 Bus1=258443629.1 kV=7.2000 kW=0.00285719 kVAR=0.00276767 status=variable Vminpu=0.7 yearly=LS_PhaseA daily=LS_PhaseA duty=LS_PhaseA
New Load.258444208_1 Phases=1 Bus1=258444208.1 kV=7.2000 kW=0.00952396 kVAR=0.00922556 status=variable Vminpu=0.7 yearly=LS_PhaseA daily=LS_PhaseA duty=LS_PhaseA
New Load.258443479_2 Phases=1 Bus1=258443479.2 kV=7.2000 kW=0.00502654 kVAR=0.00489000 status=variable Vminpu=0.7 yearly=LS_PhaseB daily=LS_PhaseB duty=LS_PhaseB
New Load.258425055_3 Phases=1 Bus1=258425055.3 kV=7.2000 kW=0.00352401 kVAR=0.00338230 status=variable Vminpu=0.7 yearly=LS_PhaseC daily=LS_PhaseC duty=LS_PhaseC
New Load.258443744_3 Phases=1 Bus1=258443744.3 kV=7.2000 kW=0.00704801 kVAR=0.00676461 status=variable Vminpu=0.7 yearly=LS_PhaseC daily=LS_PhaseC duty=LS_PhaseC
New Load.258444229_2 Phases=1 Bus1=258444229.2 kV=7.2000 kW=0.00502654 kVAR=0.00489000 status=variable Vminpu=0.7 yearly=LS_PhaseB daily=LS_PhaseB duty=LS_PhaseB
New Load.258406238_1 Phases=1 Bus1=258406238.1 kV=7.2000 kW=0.00476198 kVAR=0.00461278 status=variable Vminpu=0.7 yearly=LS_PhaseA daily=LS_PhaseA duty=LS_PhaseA
New Load.258405997_2 Phases=1 Bus1=258405997.2 kV=7.2000 kW=0.00502654 kVAR=0.00489000 status=variable Vminpu=0.7 yearly=LS_PhaseB daily=LS_PhaseB duty=LS_PhaseB
New Load.258444219_1 Phases=1 Bus1=258444219.1 kV=7.2000 kW=0.00952396 kVAR=0.00922556 status=variable Vminpu=0.7 yearly=LS_PhaseA daily=LS_PhaseA duty=LS_PhaseA
New Load.258444219_2 Phases=1 Bus1=258444219.2 kV=7.2000 kW=0.01005307 kVAR=0.00978000 status=variable Vminpu=0.7 yearly=LS_PhaseB daily=LS_PhaseB duty=LS_PhaseB
New Load.258444219_3 Phases=1 Bus1=258444219.3 kV=7.2000 kW=0.00704801 kVAR=0.00676461 status=variable Vminpu=0.7 yearly=LS_PhaseC daily=LS_PhaseC duty=LS_PhaseC
New Load.258443956_3 Phases=1 Bus1=258443956.3 kV=7.2000 kW=0.00352401 kVAR=0.00338230 status=variable Vminpu=0.7 yearly=LS_PhaseC daily=LS_PhaseC duty=LS_PhaseC
New Load.258425498_3 Phases=1 Bus1=258425498.3 kV=7.2000 kW=0.00352401 kVAR=0.00338230 status=variable Vminpu=0.7 yearly=LS_PhaseC daily=LS_PhaseC duty=LS_PhaseC
New Load.258425533_3 Phases=1 Bus1=258425533.3 kV=7.2000 kW=0.00140960 kVAR=0.00135292 status=variable Vminpu=0.7 yearly=LS_PhaseC daily=LS_PhaseC duty=LS_PhaseC
New Load.258425655_1 Phases=1 Bus1=258425655.1 kV=7.2000 kW=0.00285719 kVAR=0.00276767 status=variable Vminpu=0.7 yearly=LS_PhaseA daily=LS_PhaseA duty=LS_PhaseA
New Load.258425418_2 Phases=1 Bus1=258425418.2 kV=7.2000 kW=0.00301592 kVAR=0.00293400 status=variable Vminpu=0.7 yearly=LS_PhaseB daily=LS_PhaseB duty=LS_PhaseB
New Load.258425232_2 Phases=1 Bus1=258425232.2 kV=7.2000 kW=0.02010615 kVAR=0.01956000 status=variable Vminpu=0.7 yearly=LS_PhaseB daily=LS_PhaseB duty=LS_PhaseB
New Load.258405637_3 Phases=1 Bus1=258405637.3 kV=7.2000 kW=0.00352401 kVAR=0.00338230 status=variable Vminpu=0.7 yearly=LS_PhaseC daily=LS_PhaseC duty=LS_PhaseC
New Load.258426049_1 Phases=1 Bus1=258426049.1 kV=7.2000 kW=0.00476198 kVAR=0.00461278 status=variable Vminpu=0.7 yearly=LS_PhaseA daily=LS_PhaseA duty=LS_PhaseA
New Load.258426049_2 Phases=1 Bus1=258426049.2 kV=7.2000 kW=0.00502654 kVAR=0.00489000 status=variable Vminpu=0.7 yearly=LS_PhaseB daily=LS_PhaseB duty=LS_PhaseB
New Load.258426049_3 Phases=1 Bus1=258426049.3 kV=7.2000 kW=0.00352401 kVAR=0.00338230 status=variable Vminpu=0.7 yearly=LS_PhaseC daily=LS_PhaseC duty=LS_PhaseC
New Load.258405769_2 Phases=1 Bus1=258405769.2 kV=7.2000 kW=0.00502654 kVAR=0.00489000 status=variable Vminpu=0.7 yearly=LS_PhaseB daily=LS_PhaseB duty=LS_PhaseB
New Load.258425483_3 Phases=1 Bus1=258425483.3 kV=7.2000 kW=0.00211440 kVAR=0.00202938 status=variable Vminpu=0.7 yearly=LS_PhaseC daily=LS_PhaseC duty=LS_PhaseC
New Load.258443347_3 Phases=1 Bus1=258443347.3 kV=7.2000 kW=0.00352401 kVAR=0.00338230 status=variable Vminpu=0.7 yearly=LS_PhaseC daily=LS_PhaseC duty=LS_PhaseC
New Load.258406363_1 Phases=1 Bus1=258406363.1 kV=7.2000 kW=0.00476198 kVAR=0.00461278 status=variable Vminpu=0.7 yearly=LS_PhaseA daily=LS_PhaseA duty=LS_PhaseA
New Load.260663855_2 Phases=1 Bus1=260663855.2 kV=7.2000 kW=0.00502654 kVAR=0.00489000 status=variable Vminpu=0.7 yearly=LS_PhaseB daily=LS_PhaseB duty=LS_PhaseB
New Load.258406540_3 Phases=1 Bus1=258406540.3 kV=7.2000 kW=0.00352401 kVAR=0.00338230 status=variable Vminpu=0.7 yearly=LS_PhaseC daily=LS_PhaseC duty=LS_PhaseC
New Load.260662886_2 Phases=1 Bus1=260662886.2 kV=7.2000 kW=0.00301592 kVAR=0.00293400 status=variable Vminpu=0.7 yearly=LS_PhaseB daily=LS_PhaseB duty=LS_PhaseB
New Load.258405677_2 Phases=1 Bus1=258405677.2 kV=7.2000 kW=0.01005307 kVAR=0.00978000 status=variable Vminpu=0.7 yearly=LS_PhaseB daily=LS_PhaseB duty=LS_PhaseB
New Load.258406333_1 Phases=1 Bus1=258406333.1 kV=7.2000 kW=0.00476198 kVAR=0.00461278 status=variable Vminpu=0.7 yearly=LS_PhaseA daily=LS_PhaseA duty=LS_PhaseA
New Load.258425625_1 Phases=1 Bus1=258425625.1 kV=7.2000 kW=0.00476198 kVAR=0.00461278 status=variable Vminpu=0.7 yearly=LS_PhaseA daily=LS_PhaseA duty=LS_PhaseA
New Load.426195246_3 Phases=1 Bus1=426195246.3 kV=7.2000 kW=0.00211440 kVAR=0.00202938 status=variable Vminpu=0.7 yearly=LS_PhaseC daily=LS_PhaseC duty=LS_PhaseC
New Load.258405714_2 Phases=1 Bus1=258405714.2 kV=7.2000 kW=0.00301592 kVAR=0.00293400 status=variable Vminpu=0.7 yearly=LS_PhaseB daily=LS_PhaseB duty=LS_PhaseB
New Load.258405823_3 Phases=1 Bus1=258405823.3 kV=7.2000 kW=0.00352401 kVAR=0.00338230 status=variable Vminpu=0.7 yearly=LS_PhaseC daily=LS_PhaseC duty=LS_PhaseC
New Load.258443876_3 Phases=1 Bus1=258443876.3 kV=7.2000 kW=0.00352401 kVAR=0.00338230 status=variable Vminpu=0.7 yearly=LS_PhaseC daily=LS_PhaseC duty=LS_PhaseC
New Load.620861437_2 Phases=1 Bus1=620861437.2 kV=7.2000 kW=0.00502654 kVAR=0.00489000 status=variable Vminpu=0.7 yearly=LS_PhaseB daily=LS_PhaseB duty=LS_PhaseB
New Load.258405774_3 Phases=1 Bus1=258405774.3 kV=7.2000 kW=0.00352401 kVAR=0.00338230 status=variable Vminpu=0.7 yearly=LS_PhaseC daily=LS_PhaseC duty=LS_PhaseC
New Load.258443791_3 Phases=1 Bus1=258443791.3 kV=7.2000 kW=0.00352401 kVAR=0.00338230 status=variable Vminpu=0.7 yearly=LS_PhaseC daily=LS_PhaseC duty=LS_PhaseC
New Load.258443966_3 Phases=1 Bus1=258443966.3 kV=7.2000 kW=0.00352401 kVAR=0.00338230 status=variable Vminpu=0.7 yearly=LS_PhaseC daily=LS_PhaseC duty=LS_PhaseC
New Load.258426146_2 Phases=1 Bus1=258426146.2 kV=7.2000 kW=0.00502654 kVAR=0.00489000 status=variable Vminpu=0.7 yearly=LS_PhaseB daily=LS_PhaseB duty=LS_PhaseB
New Load.258405893_1 Phases=1 Bus1=258405893.1 kV=7.2000 kW=0.00476198 kVAR=0.00461278 status=variable Vminpu=0.7 yearly=LS_PhaseA daily=LS_PhaseA duty=LS_PhaseA
New Load.258426141_1 Phases=1 Bus1=258426141.1 kV=7.2000 kW=0.00190479 kVAR=0.00184511 status=variable Vminpu=0.7 yearly=LS_PhaseA daily=LS_PhaseA duty=LS_PhaseA
New Load.258426141_2 Phases=1 Bus1=258426141.2 kV=7.2000 kW=0.00201061 kVAR=0.00195600 status=variable Vminpu=0.7 yearly=LS_PhaseB daily=LS_PhaseB duty=LS_PhaseB
New Load.258426141_3 Phases=1 Bus1=258426141.3 kV=7.2000 kW=0.00140960 kVAR=0.00135292 status=variable Vminpu=0.7 yearly=LS_PhaseC daily=LS_PhaseC duty=LS_PhaseC
New Load.258405627_2 Phases=1 Bus1=258405627.2 kV=7.2000 kW=0.00301592 kVAR=0.00293400 status=variable Vminpu=0.7 yearly=LS_PhaseB daily=LS_PhaseB duty=LS_PhaseB
New Load.258406138_1 Phases=1 Bus1=258406138.1 kV=7.2000 kW=0.00476198 kVAR=0.00461278 status=variable Vminpu=0.7 yearly=LS_PhaseA daily=LS_PhaseA duty=LS_PhaseA
New Load.258406535_3 Phases=1 Bus1=258406535.3 kV=7.2000 kW=0.00704801 kVAR=0.00676461 status=variable Vminpu=0.7 yearly=LS_PhaseC daily=LS_PhaseC duty=LS_PhaseC
New Load.258406133_1 Phases=1 Bus1=258406133.1 kV=7.2000 kW=0.00476198 kVAR=0.00461278 status=variable Vminpu=0.7 yearly=LS_PhaseA daily=LS_PhaseA duty=LS_PhaseA
New Load.258406480_2 Phases=1 Bus1=258406480.2 kV=7.2000 kW=0.00502654 kVAR=0.00489000 status=variable Vminpu=0.7 yearly=LS_PhaseB daily=LS_PhaseB duty=LS_PhaseB
New Load.259589130_1 Phases=1 Bus1=259589130.1 kV=7.2000 kW=0.00285719 kVAR=0.00276767 status=variable Vminpu=0.7 yearly=LS_PhaseA daily=LS_PhaseA duty=LS_PhaseA
New Load.258406048_1 Phases=1 Bus1=258406048.1 kV=7.2000 kW=0.00476198 kVAR=0.00461278 status=variable Vminpu=0.7 yearly=LS_PhaseA daily=LS_PhaseA duty=LS_PhaseA
New Load.261052090_1 Phases=1 Bus1=261052090.1 kV=7.2000 kW=0.01428594 kVAR=0.01383834 status=variable Vminpu=0.7 yearly=LS_PhaseA daily=LS_PhaseA duty=LS_PhaseA
New Load.258444154_2 Phases=1 Bus1=258444154.2 kV=7.2000 kW=0.00502654 kVAR=0.00489000 status=variable Vminpu=0.7 yearly=LS_PhaseB daily=LS_PhaseB duty=LS_PhaseB
New Load.259589131_1 Phases=1 Bus1=259589131.1 kV=7.2000 kW=0.00952396 kVAR=0.00922556 status=variable Vminpu=0.7 yearly=LS_PhaseA daily=LS_PhaseA duty=LS_PhaseA
New Load.259589131_2 Phases=1 Bus1=259589131.2 kV=7.2000 kW=0.01005307 kVAR=0.00978000 status=variable Vminpu=0.7 yearly=LS_PhaseB daily=LS_PhaseB duty=LS_PhaseB
New Load.259589131_3 Phases=1 Bus1=259589131.3 kV=7.2000 kW=0.00704801 kVAR=0.00676461 status=variable Vminpu=0.7 yearly=LS_PhaseC daily=LS_PhaseC duty=LS_PhaseC
New Load.258405953_3 Phases=1 Bus1=258405953.3 kV=7.2000 kW=0.00140960 kVAR=0.00135292 status=variable Vminpu=0.7 yearly=LS_PhaseC daily=LS_PhaseC duty=LS_PhaseC
New Load.258425097_2 Phases=1 Bus1=258425097.2 kV=7.2000 kW=0.00201061 kVAR=0.00195600 status=variable Vminpu=0.7 yearly=LS_PhaseB daily=LS_PhaseB duty=LS_PhaseB
New Load.258425610_1 Phases=1 Bus1=258425610.1 kV=7.2000 kW=0.00190479 kVAR=0.00184511 status=variable Vminpu=0.7 yearly=LS_PhaseA daily=LS_PhaseA duty=LS_PhaseA
New Load.258426069_2 Phases=1 Bus1=258426069.2 kV=7.2000 kW=0.00201061 kVAR=0.00195600 status=variable Vminpu=0.7 yearly=LS_PhaseB daily=LS_PhaseB duty=LS_PhaseB
New Load.258405662_2 Phases=1 Bus1=258405662.2 kV=7.2000 kW=0.01005307 kVAR=0.00978000 status=variable Vminpu=0.7 yearly=LS_PhaseB daily=LS_PhaseB duty=LS_PhaseB
New Load.258443816_3 Phases=1 Bus1=258443816.3 kV=7.2000 kW=0.00140960 kVAR=0.00135292 status=variable Vminpu=0.7 yearly=LS_PhaseC daily=LS_PhaseC duty=LS_PhaseC
New Load.258425750_2 Phases=1 Bus1=258425750.2 kV=7.2000 kW=0.00502654 kVAR=0.00489000 status=variable Vminpu=0.7 yearly=LS_PhaseB daily=LS_PhaseB duty=LS_PhaseB
New Load.258406585_3 Phases=1 Bus1=258406585.3 kV=7.2000 kW=0.00140960 kVAR=0.00135292 status=variable Vminpu=0.7 yearly=LS_PhaseC daily=LS_PhaseC duty=LS_PhaseC
New Load.258443574_3 Phases=1 Bus1=258443574.3 kV=7.2000 kW=0.00352401 kVAR=0.00338230 status=variable Vminpu=0.7 yearly=LS_PhaseC daily=LS_PhaseC duty=LS_PhaseC
New Load.258444198_1 Phases=1 Bus1=258444198.1 kV=7.2000 kW=0.00476198 kVAR=0.00461278 status=variable Vminpu=0.7 yearly=LS_PhaseA daily=LS_PhaseA duty=LS_PhaseA
New Load.258444198_2 Phases=1 Bus1=258444198.2 kV=7.2000 kW=0.00502654 kVAR=0.00489000 status=variable Vminpu=0.7 yearly=LS_PhaseB daily=LS_PhaseB duty=LS_PhaseB
New Load.258444198_3 Phases=1 Bus1=258444198.3 kV=7.2000 kW=0.00352401 kVAR=0.00338230 status=variable Vminpu=0.7 yearly=LS_PhaseC daily=LS_PhaseC duty=LS_PhaseC
New Load.426195270_3 Phases=1 Bus1=426195270.3 kV=7.2000 kW=0.00352401 kVAR=0.00338230 status=variable Vminpu=0.7 yearly=LS_PhaseC daily=LS_PhaseC duty=LS_PhaseC
New Load.258443806_3 Phases=1 Bus1=258443806.3 kV=7.2000 kW=0.00140960 kVAR=0.00135292 status=variable Vminpu=0.7 yearly=LS_PhaseC daily=LS_PhaseC duty=LS_PhaseC
New Load.259596209_1 Phases=1 Bus1=259596209.1 kV=7.2000 kW=0.00476198 kVAR=0.00461278 status=variable Vminpu=0.7 yearly=LS_PhaseA daily=LS_PhaseA duty=LS_PhaseA
New Load.259596209_2 Phases=1 Bus1=259596209.2 kV=7.2000 kW=0.00502654 kVAR=0.00489000 status=variable Vminpu=0.7 yearly=LS_PhaseB daily=LS_PhaseB duty=LS_PhaseB
New Load.259596209_3 Phases=1 Bus1=259596209.3 kV=7.2000 kW=0.00352401 kVAR=0.00338230 status=variable Vminpu=0.7 yearly=LS_PhaseC daily=LS_PhaseC duty=LS_PhaseC
New Load.258406398_3 Phases=1 Bus1=258406398.3 kV=7.2000 kW=0.00352401 kVAR=0.00338230 status=variable Vminpu=0.7 yearly=LS_PhaseC daily=LS_PhaseC duty=LS_PhaseC
New Load.258426064_2 Phases=1 Bus1=258426064.2 kV=7.2000 kW=0.00502654 kVAR=0.00489000 status=variable Vminpu=0.7 yearly=LS_PhaseB daily=LS_PhaseB duty=LS_PhaseB
New Load.260664716_1 Phases=1 Bus1=260664716.1 kV=7.2000 kW=0.00476198 kVAR=0.00461278 status=variable Vminpu=0.7 yearly=LS_PhaseA daily=LS_PhaseA duty=LS_PhaseA
New Load.258405898_3 Phases=1 Bus1=258405898.3 kV=7.2000 kW=0.00352401 kVAR=0.00338230 status=variable Vminpu=0.7 yearly=LS_PhaseC daily=LS_PhaseC duty=LS_PhaseC
New Load.258443664_2 Phases=1 Bus1=258443664.2 kV=7.2000 kW=0.00201061 kVAR=0.00195600 status=variable Vminpu=0.7 yearly=LS_PhaseB daily=LS_PhaseB duty=LS_PhaseB
New Load.258425299_1 Phases=1 Bus1=258425299.1 kV=7.2000 kW=0.00476198 kVAR=0.00461278 status=variable Vminpu=0.7 yearly=LS_PhaseA daily=LS_PhaseA duty=LS_PhaseA
New Load.258425299_2 Phases=1 Bus1=258425299.2 kV=7.2000 kW=0.00502654 kVAR=0.00489000 status=variable Vminpu=0.7 yearly=LS_PhaseB daily=LS_PhaseB duty=LS_PhaseB
New Load.258425299_3 Phases=1 Bus1=258425299.3 kV=7.2000 kW=0.00352401 kVAR=0.00338230 status=variable Vminpu=0.7 yearly=LS_PhaseC daily=LS_PhaseC duty=LS_PhaseC
New Load.258443996_3 Phases=1 Bus1=258443996.3 kV=7.2000 kW=0.00352401 kVAR=0.00338230 status=variable Vminpu=0.7 yearly=LS_PhaseC daily=LS_PhaseC duty=LS_PhaseC
New Load.258425080_2 Phases=1 Bus1=258425080.2 kV=7.2000 kW=0.00502654 kVAR=0.00489000 status=variable Vminpu=0.7 yearly=LS_PhaseB daily=LS_PhaseB duty=LS_PhaseB
New Load.258406038_1 Phases=1 Bus1=258406038.1 kV=7.2000 kW=0.00476198 kVAR=0.00461278 status=variable Vminpu=0.7 yearly=LS_PhaseA daily=LS_PhaseA duty=LS_PhaseA
New Load.260664766_3 Phases=1 Bus1=260664766.3 kV=7.2000 kW=0.00352401 kVAR=0.00338230 status=variable Vminpu=0.7 yearly=LS_PhaseC daily=LS_PhaseC duty=LS_PhaseC
New Load.258425867_1 Phases=1 Bus1=258425867.1 kV=7.2000 kW=0.00952396 kVAR=0.00922556 status=variable Vminpu=0.7 yearly=LS_PhaseA daily=LS_PhaseA duty=LS_PhaseA
New Load.258443509_2 Phases=1 Bus1=258443509.2 kV=7.2000 kW=0.00201061 kVAR=0.00195600 status=variable Vminpu=0.7 yearly=LS_PhaseB daily=LS_PhaseB duty=LS_PhaseB
New Load.258425862_1 Phases=1 Bus1=258425862.1 kV=7.2000 kW=0.00476198 kVAR=0.00461278 status=variable Vminpu=0.7 yearly=LS_PhaseA daily=LS_PhaseA duty=LS_PhaseA
New Load.258425513_3 Phases=1 Bus1=258425513.3 kV=7.2000 kW=0.00352401 kVAR=0.00338230 status=variable Vminpu=0.7 yearly=LS_PhaseC daily=LS_PhaseC duty=LS_PhaseC
New Load.258406103_1 Phases=1 Bus1=258406103.1 kV=7.2000 kW=0.00476198 kVAR=0.00461278 status=variable Vminpu=0.7 yearly=LS_PhaseA daily=LS_PhaseA duty=LS_PhaseA
New Load.258425777_2 Phases=1 Bus1=258425777.2 kV=7.2000 kW=0.00502654 kVAR=0.00489000 status=variable Vminpu=0.7 yearly=LS_PhaseB daily=LS_PhaseB duty=LS_PhaseB
New Load.491389324_3 Phases=1 Bus1=491389324.3 kV=7.2000 kW=0.00211440 kVAR=0.00202938 status=variable Vminpu=0.7 yearly=LS_PhaseC daily=LS_PhaseC duty=LS_PhaseC
New Load.259198884_3 Phases=1 Bus1=259198884.3 kV=7.2000 kW=0.00352401 kVAR=0.00338230 status=variable Vminpu=0.7 yearly=LS_PhaseC daily=LS_PhaseC duty=LS_PhaseC
New Load.258425242_1 Phases=1 Bus1=258425242.1 kV=7.2000 kW=0.00476198 kVAR=0.00461278 status=variable Vminpu=0.7 yearly=LS_PhaseA daily=LS_PhaseA duty=LS_PhaseA
New Load.258406530_1 Phases=1 Bus1=258406530.1 kV=7.2000 kW=0.00190479 kVAR=0.00184511 status=variable Vminpu=0.7 yearly=LS_PhaseA daily=LS_PhaseA duty=LS_PhaseA
New Load.258406530_2 Phases=1 Bus1=258406530.2 kV=7.2000 kW=0.00201061 kVAR=0.00195600 status=variable Vminpu=0.7 yearly=LS_PhaseB daily=LS_PhaseB duty=LS_PhaseB
New Load.258406530_3 Phases=1 Bus1=258406530.3 kV=7.2000 kW=0.00140960 kVAR=0.00135292 status=variable Vminpu=0.7 yearly=LS_PhaseC daily=LS_PhaseC duty=LS_PhaseC
New Load.258443931_3 Phases=1 Bus1=258443931.3 kV=7.2000 kW=0.00704801 kVAR=0.00676461 status=variable Vminpu=0.7 yearly=LS_PhaseC daily=LS_PhaseC duty=LS_PhaseC
New Load.261433687_3 Phases=1 Bus1=261433687.3 kV=7.2000 kW=0.00704801 kVAR=0.00676461 status=variable Vminpu=0.7 yearly=LS_PhaseC daily=LS_PhaseC duty=LS_PhaseC
New Load.259362846_1 Phases=1 Bus1=259362846.1 kV=7.2000 kW=0.00476198 kVAR=0.00461278 status=variable Vminpu=0.7 yearly=LS_PhaseA daily=LS_PhaseA duty=LS_PhaseA
New Load.261282710_3 Phases=1 Bus1=261282710.3 kV=7.2000 kW=0.00352401 kVAR=0.00338230 status=variable Vminpu=0.7 yearly=LS_PhaseC daily=LS_PhaseC duty=LS_PhaseC
New Load.258443684_2 Phases=1 Bus1=258443684.2 kV=7.2000 kW=0.00502654 kVAR=0.00489000 status=variable Vminpu=0.7 yearly=LS_PhaseB daily=LS_PhaseB duty=LS_PhaseB
New Load.260664761_3 Phases=1 Bus1=260664761.3 kV=7.2000 kW=0.00352401 kVAR=0.00338230 status=variable Vminpu=0.7 yearly=LS_PhaseC daily=LS_PhaseC duty=LS_PhaseC
New Load.258406098_1 Phases=1 Bus1=258406098.1 kV=7.2000 kW=0.00476198 kVAR=0.00461278 status=variable Vminpu=0.7 yearly=LS_PhaseA daily=LS_PhaseA duty=LS_PhaseA
New Load.259550269_1 Phases=1 Bus1=259550269.1 kV=7.2000 kW=0.00476198 kVAR=0.00461278 status=variable Vminpu=0.7 yearly=LS_PhaseA daily=LS_PhaseA duty=LS_PhaseA
...
